REMARK  3 active torsions:
REMARK  status: ('A' for Active; 'I' for Inactive)
REMARK    1  A    between atoms: C2_1281  and  C21_1286 
REMARK    2  A    between atoms: C3_1282  and  O31_1290 
REMARK    3  A    between atoms: C21_1286  and  C22_1287 
ROOT
HETATM    1  N1  PRZ A 300      50.263  22.961  42.730  1.00 31.00    -0.243 NA
HETATM    2  C2  PRZ A 300      50.250  23.775  41.653  1.00 26.24     0.100 A 
HETATM    3  C3  PRZ A 300      51.216  23.572  40.663  1.00 19.59     0.192 A 
HETATM    4  N4  PRZ A 300      52.117  22.579  40.806  1.00 21.22    -0.218 NA
HETATM    5  C5  PRZ A 300      52.118  21.790  41.871  1.00 27.12     0.122 A 
HETATM    6  C6  PRZ A 300      51.160  21.990  42.865  1.00 42.19     0.119 A 
ENDROOT
BRANCH   2   7
HETATM    7  C21 PRZ A 300      49.149  24.853  41.561  1.00 35.53     0.050 C 
BRANCH   7   8
HETATM    8  C22 PRZ A 300      48.280  24.644  40.312  1.00 30.67     0.006 C 
HETATM    9  C24 PRZ A 300      47.642  23.249  40.307  1.00 29.79     0.000 C 
HETATM   10  C23 PRZ A 300      47.202  25.729  40.257  1.00 31.70     0.000 C 
ENDBRANCH   7   8
ENDBRANCH   2   7
BRANCH   3  11
HETATM   11  O31 PRZ A 300      51.234  24.443  39.619  1.00 20.55    -0.311 OA
HETATM   12  C31 PRZ A 300      52.403  24.333  38.815  1.00 23.58     0.183 C 
ENDBRANCH   3  11
TORSDOF 3
